LTspice 24.0.12 for Windows
Circuit: * NMOS Simulation Template
Start Time: Thu Nov 28 20:36:02 2024
solver = Normal
Maximum thread count: 12
tnom = 27
temp = 27
method = modified trap
Direct Newton iteration for .op point succeeded.
Total elapsed time: 0.177 seconds.

